Code/RG_Nordic.m
function mpc = RG_Nordic

% -------------------------------------------------------------------------------------------------------
% Nordic equivalent - RG_Nordic: DK2, NO, SE, FI & RU (Matpower)
% -------------------------------------------------------------------------------------------------------

%% MATPOWER Case Format : Version 2
mpc.version = '2';

%%-----  Power Flow Data  -----%%
%% system MVA base
mpc.baseMVA = 100;

%% bus data
%bus_i type	Pd	   Qd  Gs  Bs area	Vm	Va	baseKV	zone	Vmax	Vmin
mpc.bus = [
    1	1	0	0	0	0	1	1.04215	-5.2154	400	2	1.05	0	;
    2	1	0	0	0	0	1	1.03266	-4.5994	400	2	1.05	0	;
    3	1	0	0	0	0	1	1.0338	-4.8379	400	2	1.05	0.95	;
    4	1	0	0	0	0	1	1.03384	-4.8383	400	2	1.05	0.95	;
    5	1	0	0	0	0	1	1.03265	-3.9105	400	2	1.05	0.95	;
    6	1	0	0	0	0	1	1.03957	-5.0303	400	2	1.05	0.95	;
    7	1	0	0	0	0	1	1.03004	-4.0983	400	2	1.05	0.95	;
    8	1	0	0	0	0	1	1.04104	-3.0048	400	2	1.05	0.95	;
    9	1	0	0	0	0	1	1.0316	-3.9818	400	2	1.05	0.95	;
    10	1	0	0	0	0	1	1.03266	-4.5994	400	2	1.05	0.95	;
    11	1	0	0	0	0	1	1.03315	-3.8331	400	2	1.04	1.02	;
    12	1	0	0	0	0	1	1.03481	-4.0783	400	2	1.05	0.95	;
    13	1	0	0	0	0	1	1.0386	-5.2507	400	2	1.05	0	;
    14	1	0	0	0	0	1	1.05924	-4.6534	232	2	1.05	0	;
    15	1	0	0	0	0	1	1.06402	-4.5619	232	2	1.05	0	;
    16	1	0	0	0	0	1	1.06286	-4.3804	232	2	1.05	0	;
    17	1	0	0	0	-120	1	1.07907	-4.6446	232	2	1.05	0	;
    18	1	0	0	0	0	1	1.08152	-4.6919	232	2	1.05	0	;
    19	1	0	0	0	-120	1	1.06571	-4.5269	232	2	1.04	0.95	;
    20	2	0	0	0	0	1	1.01046	-5.655	132	2	1.1	0.95	;
    21	1	0	0	0	0	1	1.00092	-6.6515	132	2	1.05	0	;
    22	2	0	0	0	0	1	0.99977	-6.7651	132	2	1.05	0.95	;
    23	2	0	0	0	0	1	1.00092	-6.6515	132	2	1.05	0.95	;
    24	1	0	0	0	0	1	1.01889	-4.8645	132	2	1.05	0.95	;
    25	1	0	0	0	0	1	1.01865	-4.9992	132	2	1.05	0.95	;
    26	1	0	0	0	0	1	1.02003	-4.9462	132	2	1.05	0.95	;
    27	2	0	0	0	0	1	1.01276	-6.2354	132	2	1.05	0.95	;
    28	2	0	0	0	0	1	1.01411	-6.1886	132	2	1.05	0.95	;
    29	1	0	0	0	0	1	1.00201	-6.8168	132	2	1.05	0.95	;
    30	1	0	0	0	0	1	1.04166	-7.0092	132	2	1.05	0.95	;
    31	2	0	0	0	0	1	1.07582	-10.652	132	2	1.05	0.95	;
    32	2	0	0	0	-60	1	1.01262	-5.5525	132	2	1.05	0.95	;
    33	1	0	0	0	0	1	1.01425	-5.8308	132	2	1.05	0.95	;
    34	1	0	0	0	0	1	1.0126	-5.7837	132	2	1.05	0.95	;
    35	1	0	0	0	0	1	1.0126	-5.7837	132	2	1.05	0.95	;
    36	1	0	0	0	0	1	1.01368	-6.1977	132	2	1.05	0.95	;
    37	2	0	0	0	0	1	1.01312	-6.1382	132	2	1.05	0.95	;
    38	2	0	0	0	0	1	1.10085	-12.1578	132	2	1.05	0.95	;
    39	1	0	0	0	0	1	1.0945	-11.7843	132	2	1.05	0	;
    40	1	0	0	0	0	1	1.02848	-6.9434	132	2	1.05	0.95	;
    41	1	0	0	0	0	1	1.06461	-9.7175	132	2	1.05	0.95	;
    42	2	0	0	0	0	1	1.00823	-6.3167	132	2	1.05	0.95	;
    43	1	0	0	0	0	1	1.01271	-6.2321	132	2	1.1	0.91	;
    44	1	0	0	0	0	1	1.01492	-5.3852	132	2	1.1	0.95	;
    45	1	0	0	0	0	1	1.02011	-5.0182	132	2	1.1	0.95	;
    46	2	0	0	0	0	1	1.05794	-9.2208	132	2	1.05	0.95	;
    47	2	0	0	0	0	1	1.00092	-6.7459	132	2	1.05	0.95	;
    48	2	0	0	0	0	1	1.02591	-6.8195	132	2	1.05	0	;
    49	2	0	0	0	0	1	1.06198	-10.5781	132	2	1.05	0.95	;
    50	1	0	0	0	0	1	1.0621	-9.2975	132	2	1.05	0.95	;
    51	2	0	0	0	0	1	1.01356	-6.212	132	2	1.05	0.95	;
    52	1	0	0	0	0	1	1.0134	-6.1446	132	2	1.05	0	;
    53	1	0	0	0	0	1	1.01751	-5.7999	132	2	1.05	0.98	;
    54	1	0	0	0	0	1	1.09939	-12.384	132	2	1.05	0.95	;
    55	1	0	0	0	0	1	1.01425	-6.01	132	2	1.05	0	;
    56	1	0	0	0	-50.01	1	1.02743	-6.7658	132	2	1.05	0.95	;
    57	2	0	0	0	0	1	1.03493	-7.298	132	2	1.05	0.95	;
    58	1	0	0	0	0	1	1.0001	-6.7373	132	2	1.05	0.95	;
    59	2	0	0	0	0	1	1.02694	-6.8721	132	2	1.05	0.95	;
    60	1	0	0	0	0	1	1.02591	-6.8195	132	2	1.05	0	;
    61	1	0	0	0	0	1	1.0183	-4.897	132	2	1.05	0.95	;
    62	1	0	0	0	0	1	1.01893	-4.8676	132	2	1.05	0.95	;
    63	1	0	0	0	0	1	1.03388	-7.2577	132	2	1.05	0	;
    64	2	0	0	0	0	1	1.01938	-6.5165	132	2	1.05	0.95	;
    65	2	0	0	0	0	1	1.01486	-6.1356	132	2	1.05	0.95	;
    66	1	0	0	0	0	1	1.011	-6.211	132	2	1.05	0.95	;
    67	1	0	0	0	0	1	1.00173	-6.8232	132	2	1.05	0.95	;
    68	1	0	0	0	0	1	1.01569	-6.1396	132	2	1.05	0.95	;
    69	2	0	0	0	0	1	1.09173	-11.5237	132	2	1.05	0.95	;
    70	1	0	0	0	0	1	1.03143	-7.1406	132	2	1.05	0.95	;
    71	2	0	0	0	0	1	1.01432	-6.1794	132	2	1.05	0.95	;
    72	2	0	0	0	0	1	0.89727	-18.808	132	2	1.05	0.95	;
    73	2	0	0	0	0	1	1.06522	-9.6939	132	2	1.05	0.95	;
    74	2	0	0	0	0	1	1.0183	-4.9461	132	2	1.05	0.95	;
    75	1	0	0	0	0	1	1.0257	-6.7839	132	2	1.05	0.95	;
    76	1	0	0	0	0	1	1.02574	-6.7818	132	2	1.05	0.95	;
    77	2	0	0	0	0	1	1.04892	-8.2423	132	2	1.05	0.95	;
    78	1	0	0	0	0	1	1.09867	-11.5183	132	2	1.05	0.95	;
    79	1	0	0	0	-40	1	1.02762	-7.6032	132	2	1.05	0.95	;
    80	2	0	0	0	0	1	1.11205	-12.2069	132	2	1.05	0.98	;
    81	1	0	0	0	0	1	1.09755	-11.8318	132	2	1.05	0.95	;
    82	1	0	0	0	0	1	1.12172	-12.2543	132	2	1.1	0.91	;
    83	1	0	0	0	0	1	1.11177	-12.1733	132	2	1.1	0.91	;
    84	1	0	0	0	0	1	1.0648	-9.665	132	2	1.05	0.95	;
    85	2	0	0	0	0	1	1.05367	-8.3288	132	2	1.05	0.95	;
    86	2	0	0	0	0	1	1.01519	-6.176	132	2	1.1	0.95	;
    87	1	0	0	0	0	1	1.06141	-9.4783	132	2	1.05	0	;
    88	1	0	0	0	0	1	1.00096	-6.852	132	2	1.05	0.95	;
    89	1	0	0	0	0	1	1.01876	-4.9164	132	2	1.05	0.95	;
    90	2	0	0	0	0	1	1.04136	-7.2086	132	2	1.05	0.95	;
    91	1	0	0	0	0	1	1.01081	-6.0762	132	2	1.05	0.95	;
    92	2	0	0	0	0	1	1.01	-5.9266	132	2	1.05	0.95	;
    93	1	0	0	0	0	1	1.01887	-4.8853	132	2	1.1	0.95	;
    94	2	0	0	0	0	1	1.07606	-11.0572	132	2	1.05	0.95	;
    95	2	0	0	0	0	1	1.08387	7.5213	132	2	1.05	0	;
    96	2	0	0	0	0	1	1.00766	-6.7288	132	2	1.05	0.95	;
    97	1	0	0	0	0	1	1.0126	-5.7837	132	2	1.05	0.95	;
    98	1	0	0	0	0	1	1.0126	-5.7837	132	2	1.05	0	;
    99	2	0	0	0	0	1	1.01404	-6.1099	132	2	1.05	0.95	;
    100	1	0	0	0	0	1	1.00081	-6.8263	132	2	1.05	0.95	;
    101	1	0	0	0	0	1	1.02574	-6.7818	132	2	1.05	0.95	;
    102	2	0	0	0	0	1	1.08751	-11.6377	132	2	1.05	0.95	;
    103	1	0	0	0	0	1	1.01262	-5.7837	132	2	1.05	0	;
    104	2	0	0	0	0	1	1.01052	-6.3433	132	2	1.05	0.95	;
    105	2	0	0	0	0	1	1.09706	-11.4319	132	2	1.05	0.95	;
    106	1	0	0	0	0	1	1.05078	-7.9128	132	2	1.05	0	;
    107	1	0	0	0	0	1	1.03384	-4.8383	21	2	1.05	0.95	;
    108	2	0	0	0	0	1	1.03	-0.1781	19.5	2	1.08	0.92	;
    109	1	0	0	0	0	1	1.01486	-6.1356	18	2	1.05	0.95	;
    110	1	0	0	0	0	1	1.01486	-6.1356	18	2	1.05	0.95	;
    111	1	0	0	0	0	1	1.07606	-11.0572	18	2	1.05	0.95	;
    112	2	0	0	0	0	1	0.97786	-3.9887	17	2	1.05	0.95	;
    113	2	0	0	0	0	1	1.00577	0.3614	17	2	1.05	0.95	;
    114	2	0	0	0	0	1	0.95934	-4.9469	15.8	2	1.05	0	;
    115	2	0	0	0	0	1	0.9812	-4.5411	15.8	2	1.05	0	;
    116	2	0	0	0	0	1	0.9888	1.2725	12	2	1.05	0.95	;
    117	2	0	0	0	0	1	1.01889	-1.1356	11.5	2	1.13	0.87	;
    118	2	0	0	0	0	1	1.0188	-1.1213	11.5	2	1.13	0.87	;
    119	1	0	0	0	0	1	1.01486	-6.1356	11	2	1.05	0.95	;
    120	1	0	0	0	0	1	1.01486	-6.1356	11	2	1.05	0.95	;
    121	2	0	0	0	0	1	0.96432	-4.9508	10	2	1.05	0.95	;
    122	1	0	0	0	0	1	1.0052	-6.7339	10	2	1.05	0.95	;
    123	1	0	0	0	0	1	1.00523	-6.7205	10	2	1.05	0	;
    124	1	0	0	0	0	1	1.04132	-4.5963	10	2	1.05	0	;
    125	1	0	0	0	106.6	1	1.26885	-13.0152	9	2	1.03	1.02	;
    126	1	0	0	0	0	1	1	0	1	2	1.1	0.9	;
    127	1	0	0	0	0	1	1	0	1	2	1.1	0.9	;
    128	1	0	0	0	0	1	1	0	1	2	1.1	0.9	;
    129	1	0	0	0	0	1	1	0	1	2	1.1	0.9	;
    130	1	0	0	0	0	1	1	0	1	2	1.1	0.9	;
    131	1	0	0	0	0	2	1.01501	-10.0236	420	2	1.1	0.9	;
    132	1	0	0	0	0	2	1.05193	-5.1293	420	2	1.1	0.9	;
    133	1	0	0	0	0	2	1.04587	-7.7569	420	2	1.1	0.9	;
    134	1	0	0	0	0	2	1.02028	-10.4868	300	2	1.1	0.9	;
    135	2	0	0	0	0	2	1	-7.4123	20	2	1.1	0.9	;
    136	1	0	0	0	0	2	1.0121	-6.5411	300	2	1.1	0.9	;
    137	2	0	0	0	0	2	1	-1.824	20	2	1.1	0.9	;
    138	1	0	0	0	0	2	1.01743	-5.9267	420	2	1.1	0.9	;
    139	1	0	0	0	0	2	1.01171	-5.6237	420	2	1.1	0.9	;
    140	1	0	0	0	0	2	1.02863	-7.909	300	2	1.1	0.9	;
    141	2	0	0	0	0	2	1	-2.8334	20	2	1.1	0.9	;
    142	1	0	0	0	400	3	1.00589	-16.4233	300	2	1.1	0.9	;
    143	2	0	0	0	0	3	1	-12.3974	20	2	1.1	0.9	;
    144	1	0	0	0	0	3	1.00349	-16.8359	300	2	1.1	0.9	;
    145	1	0	0	0	0	3	1.0386	-2.7789	300	2	1.1	0.9	;
    146	1	0	0	0	0	3	1.04065	-1.9392	300	2	1.1	0.9	;
    147	1	0	0	0	0	3	1.03766	-3.1148	300	2	1.1	0.9	;
    148	1	0	0	0	0	3	1.01699	-5.1346	300	2	1.1	0.9	;
    149	1	0	0	0	0	3	1.01088	1.1478	20	2	1.1	0.9	;
    150	1	0	0	0	0	3	1.00059	7.8139	300	2	1.1	0.9	;
    151	2	0	0	0	0	3	1	15.3644	20	2	1.1	0.9	;
    152	1	0	0	0	0	3	1.01516	-4.1617	300	2	1.1	0.9	;
    153	2	0	0	0	0	3	1	3.0955	20	2	1.1	0.9	;
    154	2	0	0	0	0	3	1	3.0955	20	2	1.1	0.9	;
    155	2	0	0	0	0	3	1	3.0955	20	2	1.1	0.9	;
    156	1	0	0	0	0	4	1.00617	-9.2765	300	2	1.1	0.9	;
    157	2	0	0	0	0	4	1	-2.6969	20	2	1.1	0.9	;
    158	2	0	0	0	0	4	1	-2.6969	20	2	1.1	0.9	;
    159	1	0	0	0	0	4	0.99753	-1.7625	20	2	1.1	0.9	;
    160	1	0	0	0	0	4	1	0	300	2	1.1	0.9	;
    161	1	0	0	0	0	5	1.00012	23.5262	300	2	1.1	0.9	;
    162	2	0	0	0	700	5	1	31.8473	20	2	1.1	0.9	;
    163	2	0	0	0	0	5	1	31.8473	20	2	1.1	0.9	;
    164	2	0	0	0	0	5	1	31.8473	20	2	1.1	0.9	;
    165	1	0	0	0	0	5	1.0025	30.6161	20	2	1.1	0.9	;
    166	1	0	0	0	0	5	1.00431	23.9681	420	2	1.1	0.9	;
    167	1	0	0	0	0	5	1.00494	31.8209	20	2	1.1	0.9	;
    168	1	0	0	0	0	5	1	0	300	2	1.1	0.9	;
    169	1	0	0	0	0	6	1.05173	-5.6062	420	2	1.1	0.9	;
    170	1	0	0	0	0	6	1.01052	5.6514	300	2	1.1	0.9	;
    171	2	0	0	0	0	6	1	12.051	20	2	1.1	0.9	;
    172	2	0	0	0	0	6	1	12.051	20	2	1.1	0.9	;
    173	2	0	0	0	0	6	1	12.051	20	2	1.1	0.9	;
    174	2	0	0	0	0	6	1	12.051	20	2	1.1	0.9	;
    175	1	0	0	0	0	6	1.01205	-5.0109	420	2	1.1	0.9	;
    176	1	0	0	0	0	6	1.04996	-1.7828	420	2	1.1	0.9	;
    177	1	0	0	0	0	6	1.04783	-2.2414	420	2	1.1	0.9	;
    178	1	0	0	0	0	6	1.02903	1.1681	420	2	1.1	0.9	;
    179	2	0	0	0	0	7	1.00341	20.577	420	2	1.1	0.9	;
    180	2	0	0	0	0	7	1	26.872	130	2	1.1	0.9	;
    181	1	0	0	0	0	7	1.00868	26.1904	20	2	1.1	0.9	;
    182	1	0	0	0	0	7	1	0	420	2	1.1	0.9	;
    183	1	0	0	0	0	7	1	0	420	2	1.1	0.9	;
    184	1	0	0	0	0	8	1.0122	10.3843	420	2	1.1	0.9	;
    185	1	0	0	0	0	8	1.00303	18.1015	20	2	1.1	0.9	;
    186	1	0	0	0	0	8	0.99606	-5.878	420	2	1.1	0.9	;
    187	2	0	0	0	0	8	1	-4.0624	220	2	1.1	0.9	;
    188	2	0	0	0	0	8	1	-4.0624	220	2	1.1	0.9	;
    189	1	0	0	0	0	8	0.9964	-6.2089	300	2	1.1	0.9	;
    190	1	0	0	0	0	8	1.00046	24.9263	420	2	1.1	0.9	;
    191	2	0	0	0	0	8	1	30.307	220	2	1.1	0.9	;
    192	2	0	0	0	0	8	1	30.307	130	2	1.1	0.9	;
    193	2	0	0	0	0	8	1	30.307	130	2	1.1	0.9	;
    194	1	0	0	0	0	8	1.00566	30.5732	20	2	1.1	0.9	;
    195	1	0	0	0	100	8	1.0191	35.8835	300	2	1.1	0.9	;
    196	1	0	0	0	0	8	1.0136	41.8371	20	2	1.1	0.9	;
    197	2	0	0	0	600	9	1.01558	-10.0925	420	2	1.1	0.9	;
    198	2	0	0	0	0	9	1	-2.9932	130	2	1.1	0.9	;
    199	1	0	0	0	0	9	1.00804	-0.4677	420	2	1.1	0.9	;
    200	2	0	0	0	0	9	0.99798	-9.3604	420	2	1.1	0.9	;
...
];

%% generator data
%	bus	Pg	Qg	Qmax	Qmin	Vg	mBase	status	Pmax	Pmin	Pc1	Pc2	Qc1min	Qc1max	Qc2min	Qc2max	ramp_agc	ramp_10	ramp_30	ramp_q	apf
mpc.gen = [
    20	0	0	88	-88	1	100	1	63.5	0	0	0	0	0	0	0	0	0	0	0	0	;
    22	0	0	1	-1	1	100	1	0.74	0	0	0	0	0	0	0	0	0	0	0	0	;
    23	0	0	22	-22	1	100	1	16	0	0	0	0	0	0	0	0	0	0	0	0	;
    23	0	0	9	-9	1	100	1	6.80	0	0	0	0	0	0	0	0	0	0	0	0	;
    27	0	0	6	-6	1	100	1	4.24	0	0	0	0	0	0	0	0	0	0	0	0	;
    28	0	0	2	-2	1	100	1	1.78	0	0	0	0	0	0	0	0	0	0	0	0	;
    31	0	0	41	-41	1	100	1	29.5	0	0	0	0	0	0	0	0	0	0	0	0	;
    32	0	0	45	-45	1	100	1	32.7	0	0	0	0	0	0	0	0	0	0	0	0	;
    37	0	0	45	-45	1	100	1	32	0	0	0	0	0	0	0	0	0	0	0	0	;
    37	0	0	3	-3	1	100	1	2.48	0	0	0	0	0	0	0	0	0	0	0	0	;
    38	0	0	28	-28	1	100	1	19.8	0	0	0	0	0	0	0	0	0	0	0	0	;
    42	0	0	55	-55	1	100	1	39.7	0	0	0	0	0	0	0	0	0	0	0	0	;
    46	0	0	15	-15	1	100	1	10.7	0	0	0	0	0	0	0	0	0	0	0	0	;
    47	0	0	44	-44	1	100	1	32.0	0	0	0	0	0	0	0	0	0	0	0	0	;
    48	0	0	23	-23	1	100	1	16.9	0	0	0	0	0	0	0	0	0	0	0	0	;
    48	0	0	15	-15	1	100	1	11	0	0	0	0	0	0	0	0	0	0	0	0	;
    49	0	0	18	-18	1	100	1	12.7	0	0	0	0	0	0	0	0	0	0	0	0	;
    51	0	0	2	-2	1	100	1	1.36	0	0	0	0	0	0	0	0	0	0	0	0	;
    57	0	0	38	-38	1	100	1	27.6	0	0	0	0	0	0	0	0	0	0	0	0	;
    59	0	0	23	-23	1	100	1	16.9	0	0	0	0	0	0	0	0	0	0	0	0	;
    64	0	0	3	-3	1	100	1	2.46	0	0	0	0	0	0	0	0	0	0	0	0	;
    65	0	0	22	-22	1	100	1	16	0	0	0	0	0	0	0	0	0	0	0	0	;
    69	0	0	78	-78	1	100	1	56	0	0	0	0	0	0	0	0	0	0	0	0	;
    71	0	0	16	-16	1	100	1	11.3	0	0	0	0	0	0	0	0	0	0	0	0	;
    72	0	0	15	-15	1	100	1	10.5	0	0	0	0	0	0	0	0	0	0	0	0	;
    73	0	0	4	-4	1	100	1	3.10	0	0	0	0	0	0	0	0	0	0	0	0	;
    74	0	0	4	-4	1	100	1	3.18	0	0	0	0	0	0	0	0	0	0	0	0	;
    77	0	0	9	-9	1	100	1	6.16	0	0	0	0	0	0	0	0	0	0	0	0	;
    80	0	0	14	-14	1	100	1	10.4	0	0	0	0	0	0	0	0	0	0	0	0	;
    85	0	0	13	-13	1	100	1	9.64	0	0	0	0	0	0	0	0	0	0	0	0	;
    86	0	0	1	-1	1	100	1	0.74	0	0	0	0	0	0	0	0	0	0	0	0	;
    90	0	0	13	-13	1	100	1	9.21	0	0	0	0	0	0	0	0	0	0	0	0	;
    92	0	0	16	-16	1	100	1	11.2	0	0	0	0	0	0	0	0	0	0	0	0	;
    94	0	0	14	-14	1	100	1	10.2	0	0	0	0	0	0	0	0	0	0	0	0	;
    95	0	0	68	-68	1	100	1	48.8	0	0	0	0	0	0	0	0	0	0	0	0	;
    96	0	0	9	-9	1	100	1	6.24	0	0	0	0	0	0	0	0	0	0	0	0	;
    99	0	0	3	-3	1	100	1	2.04	0	0	0	0	0	0	0	0	0	0	0	0	;
    102	0	0	18	-18	1	100	1	12.8	0	0	0	0	0	0	0	0	0	0	0	0	;
    104	0	0	3	-3	1	100	1	2.24	0	0	0	0	0	0	0	0	0	0	0	0	;
    105	0	0	14	-14	1	100	1	10.4	0	0	0	0	0	0	0	0	0	0	0	0	;
    105	0	0	3	-3	1	100	1	1.97	0	0	0	0	0	0	0	0	0	0	0	0	;
    108	0	0	488	-325	1	100	1	550	135	0	0	0	0	0	0	0	0	0	0	0	;
    112	0	0	92	-58	1	100	1	150	59	0	0	0	0	0	0	0	0	0	0	0	;
    113	0	0	221	-147	1	100	1	250	55	0	0	0	0	0	0	0	0	0	0	0	;
    114	0	0	270	-140	1	100	1	0	0	0	0	0	0	0	0	0	0	0	0	0	;
    115	0	0	200	-120	1	100	1	0	0	0	0	0	0	0	0	0	0	0	0	0	;
    116	0	0	131	-88	1	100	1	140	40	0	0	0	0	0	0	0	0	0	0	0	;
    117	0	0	10	-10	1	100	1	58	0	0	0	0	0	0	0	0	0	0	0	0	;
    118	0	0	10	-10	1	100	1	58	0	0	0	0	0	0	0	0	0	0	0	0	;
    121	0	0	80	-52	1	100	1	71	0	0	0	0	0	0	0	0	0	0	0	0	;
    135	0	0	0	0	1	100	1	213	0	0	0	0	0	0	0	0	0	0	0	0	;
    135	0	0	0	0	1	100	1	200	0	0	0	0	0	0	0	0	0	0	0	0	;
    135	0	0	0	0	1	100	1	111	0	0	0	0	0	0	0	0	0	0	0	0	;
    135	0	0	0	0	1	100	1	100	0	0	0	0	0	0	0	0	0	0	0	0	;
    135	0	0	0	0	1	100	1	62	0	0	0	0	0	0	0	0	0	0	0	0	;
    137	0	0	0	0	1	100	1	230	0	0	0	0	0	0	0	0	0	0	0	0	;
    137	0	0	0	0	1	100	1	200	0	0	0	0	0	0	0	0	0	0	0	0	;
    137	0	0	0	0	1	100	1	200	0	0	0	0	0	0	0	0	0	0	0	0	;
    141	0	0	0	0	1	100	1	344	0	0	0	0	0	0	0	0	0	0	0	0	;
    141	0	0	0	0	1	100	1	200	0	0	0	0	0	0	0	0	0	0	0	0	;
    141	0	0	0	0	1	100	1	200	0	0	0	0	0	0	0	0	0	0	0	0	;
    141	0	0	0	0	1	100	1	164	0	0	0	0	0	0	0	0	0	0	0	0	;
    141	0	0	0	0	1	100	1	140	0	0	0	0	0	0	0	0	0	0	0	0	;
    141	0	0	0	0	1	100	1	129	0	0	0	0	0	0	0	0	0	0	0	0	;
    141	0	0	0	0	1	100	1	114	0	0	0	0	0	0	0	0	0	0	0	0	;
    141	0	0	0	0	1	100	1	100	0	0	0	0	0	0	0	0	0	0	0	0	;
    141	0	0	0	0	1	100	1	50	0	0	0	0	0	0	0	0	0	0	0	0	;
    143	0	0	0	0	1	100	1	960	0	0	0	0	0	0	0	0	0	0	0	0	;
    143	0	0	0	0	1	100	1	420	0	0	0	0	0	0	0	0	0	0	0	0	;
    143	0	0	0	0	1	100	1	200	0	0	0	0	0	0	0	0	0	0	0	0	;
    143	0	0	0	0	1	100	1	200	0	0	0	0	0	0	0	0	0	0	0	0	;
    143	0	0	0	0	1	100	1	150	0	0	0	0	0	0	0	0	0	0	0	0	;
    143	0	0	0	0	1	100	1	115	0	0	0	0	0	0	0	0	0	0	0	0	;
    143	0	0	0	0	1	100	1	104	0	0	0	0	0	0	0	0	0	0	0	0	;
    151	0	0	0	0	1	100	1	275	0	0	0	0	0	0	0	0	0	0	0	0	;
    151	0	0	0	0	1	100	1	240	0	0	0	0	0	0	0	0	0	0	0	0	;
    151	0	0	0	0	1	100	1	220	0	0	0	0	0	0	0	0	0	0	0	0	;
    151	0	0	0	0	1	100	1	220	0	0	0	0	0	0	0	0	0	0	0	0	;
    151	0	0	0	0	1	100	1	215	0	0	0	0	0	0	0	0	0	0	0	0	;
    151	0	0	0	0	1	100	1	200	0	0	0	0	0	0	0	0	0	0	0	0	;
    151	0	0	0	0	1	100	1	200	0	0	0	0	0	0	0	0	0	0	0	0	;
    151	0	0	0	0	1	100	1	200	0	0	0	0	0	0	0	0	0	0	0	0	;
    151	0	0	0	0	1	100	1	200	0	0	0	0	0	0	0	0	0	0	0	0	;
    151	0	0	0	0	1	100	1	200	0	0	0	0	0	0	0	0	0	0	0	0	;
    151	0	0	0	0	1	100	1	160	0	0	0	0	0	0	0	0	0	0	0	0	;
    151	0	0	0	0	1	100	1	113	0	0	0	0	0	0	0	0	0	0	0	0	;
    153	0	0	0	0	1	100	1	1240	0	0	0	0	0	0	0	0	0	0	0	0	;
    153	0	0	0	0	1	100	1	640	0	0	0	0	0	0	0	0	0	0	0	0	;
    154	0	0	0	0	1	100	1	433	0	0	0	0	0	0	0	0	0	0	0	0	;
    154	0	0	0	0	1	100	1	415	0	0	0	0	0	0	0	0	0	0	0	0	;
    154	0	0	0	0	1	100	1	379	0	0	0	0	0	0	0	0	0	0	0	0	;
    154	0	0	0	0	1	100	1	370	0	0	0	0	0	0	0	0	0	0	0	0	;
    154	0	0	0	0	1	100	1	309	0	0	0	0	0	0	0	0	0	0	0	0	;
    155	0	0	0	0	1	100	1	228	0	0	0	0	0	0	0	0	0	0	0	0	;
    155	0	0	0	0	1	100	1	204	0	0	0	0	0	0	0	0	0	0	0	0	;
    155	0	0	0	0	1	100	1	187	0	0	0	0	0	0	0	0	0	0	0	0	;
    155	0	0	0	0	1	100	1	185	0	0	0	0	0	0	0	0	0	0	0	0	;
    155	0	0	0	0	1	100	1	160	0	0	0	0	0	0	0	0	0	0	0	0	;
    155	0	0	0	0	1	100	1	160	0	0	0	0	0	0	0	0	0	0	0	0	;
    155	0	0	0	0	1	100	1	150	0	0	0	0	0	0	0	0	0	0	0	0	;
    155	0	0	0	0	1	100	1	136	0	0	0	0	0	0	0	0	0	0	0	0	;
    155	0	0	0	0	1	100	1	120	0	0	0	0	0	0	0	0	0	0	0	0	;
    155	0	0	0	0	1	100	1	120	0	0	0	0	0	0	0	0	0	0	0	0	;
    155	0	0	0	0	1	100	1	113	0	0	0	0	0	0	0	0	0	0	0	0	;
    155	0	0	0	0	1	100	1	110	0	0	0	0	0	0	0	0	0	0	0	0	;
    155	0	0	0	0	1	100	1	108	0	0	0	0	0	0	0	0	0	0	0	0	;
    157	0	0	0	0	1	100	1	283	0	0	0	0	0	0	0	0	0	0	0	0	;
    157	0	0	0	0	1	100	1	260	0	0	0	0	0	0	0	0	0	0	0	0	;
    157	0	0	0	0	1	100	1	260	0	0	0	0	0	0	0	0	0	0	0	0	;
    157	0	0	0	0	1	100	1	260	0	0	0	0	0	0	0	0	0	0	0	0	;
    157	0	0	0	0	1	100	1	260	0	0	0	0	0	0	0	0	0	0	0	0	;
    157	0	0	0	0	1	100	1	260	0	0	0	0	0	0	0	0	0	0	0	0	;
    157	0	0	0	0	1	100	1	260	0	0	0	0	0	0	0	0	0	0	0	0	;
    158	0	0	0	0	1	100	1	222	0	0	0	0	0	0	0	0	0	0	0	0	;
    158	0	0	0	0	1	100	1	215	0	0	0	0	0	0	0	0	0	0	0	0	;
    158	0	0	0	0	1	100	1	167	0	0	0	0	0	0	0	0	0	0	0	0	;
    158	0	0	0	0	1	100	1	144	0	0	0	0	0	0	0	0	0	0	0	0	;
    158	0	0	0	0	1	100	1	144	0	0	0	0	0	0	0	0	0	0	0	0	;
    158	0	0	0	0	1	100	1	133	0	0	0	0	0	0	0	0	0	0	0	0	;
    158	0	0	0	0	1	100	1	132	0	0	0	0	0	0	0	0	0	0	0	0	;
    158	0	0	0	0	1	100	1	130	0	0	0	0	0	0	0	0	0	0	0	0	;
    158	0	0	0	0	1	100	1	113	0	0	0	0	0	0	0	0	0	0	0	0	;
    158	0	0	0	0	1	100	1	104	0	0	0	0	0	0	0	0	0	0	0	0	;
    158	0	0	0	0	1	100	1	85	0	0	0	0	0	0	0	0	0	0	0	0	;
    158	0	0	0	0	1	100	1	61	0	0	0	0	0	0	0	0	0	0	0	0	;
    162	0	0	0	0	1	100	1	720	0	0	0	0	0	0	0	0	0	0	0	0	;
    162	0	0	0	0	1	100	1	500	0	0	0	0	0	0	0	0	0	0	0	0	;
    162	0	0	0	0	1	100	1	200	0	0	0	0	0	0	0	0	0	0	0	0	;
    163	0	0	0	0	1	100	1	487	0	0	0	0	0	0	0	0	0	0	0	0	;
    163	0	0	0	0	1	100	1	240	0	0	0	0	0	0	0	0	0	0	0	0	;
    163	0	0	0	0	1	100	1	230	0	0	0	0	0	0	0	0	0	0	0	0	;
    163	0	0	0	0	1	100	1	200	0	0	0	0	0	0	0	0	0	0	0	0	;
    163	0	0	0	0	1	100	1	300	0	0	0	0	0	0	0	0	0	0	0	0	;
    163	0	0	0	0	1	100	1	300	0	0	0	0	0	0	0	0	0	0	0	0	;
    164	0	0	0	0	1	100	1	200	0	0	0	0	0	0	0	0	0	0	0	0	;
    164	0	0	0	0	1	100	1	200	0	0	0	0	0	0	0	0	0	0	0	0	;
    164	0	0	0	0	1	100	1	200	0	0	0	0	0	0	0	0	0	0	0	0	;
    164	0	0	0	0	1	100	1	180	0	0	0	0	0	0	0	0	0	0	0	0	;
    164	0	0	0	0	1	100	1	171	0	0	0	0	0	0	0	0	0	0	0	0	;
    164	0	0	0	0	1	100	1	165	0	0	0	0	0	0	0	0	0	0	0	0	;
    164	0	0	0	0	1	100	1	159	0	0	0	0	0	0	0	0	0	0	0	0	;
    164	0	0	0	0	1	100	1	130	0	0	0	0	0	0	0	0	0	0	0	0	;
    164	0	0	0	0	1	100	1	128	0	0	0	0	0	0	0	0	0	0	0	0	;
    164	0	0	0	0	1	100	1	120	0	0	0	0	0	0	0	0	0	0	0	0	;
    164	0	0	0	0	1	100	1	102	0	0	0	0	0	0	0	0	0	0	0	0	;
    171	0	0	0	0	1	100	1	840	0	0	0	0	0	0	0	0	0	0	0	0	;
    171	0	0	0	0	1	100	1	720	0	0	0	0	0	0	0	0	0	0	0	0	;
    171	0	0	0	0	1	100	1	212	0	0	0	0	0	0	0	0	0	0	0	0	;
    171	0	0	0	0	1	100	1	200	0	0	0	0	0	0	0	0	0	0	0	0	;
    172	0	0	0	0	1	100	1	580	0	0	0	0	0	0	0	0	0	0	0	0	;
    172	0	0	0	0	1	100	1	390	0	0	0	0	0	0	0	0	0	0	0	0	;
    172	0	0	0	0	1	100	1	330	0	0	0	0	0	0	0	0	0	0	0	0	;
    172	0	0	0	0	1	100	1	290	0	0	0	0	0	0	0	0	0	0	0	0	;
    172	0	0	0	0	1	100	1	290	0	0	0	0	0	0	0	0	0	0	0	0	;
    172	0	0	0	0	1	100	1	200	0	0	0	0	0	0	0	0	0	0	0	0	;
    173	0	0	0	0	1	100	1	328	0	0	0	0	0	0	0	0	0	0	0	0	;
    173	0	0	0	0	1	100	1	260	0	0	0	0	0	0	0	0	0	0	0	0	;
    173	0	0	0	0	1	100	1	256	0	0	0	0	0	0	0	0	0	0	0	0	;
    173	0	0	0	0	1	100	1	230	0	0	0	0	0	0	0	0	0	0	0	0	;
    173	0	0	0	0	1	100	1	215	0	0	0	0	0	0	0	0	0	0	0	0	;
    173	0	0	0	0	1	100	1	200	0	0	0	0	0	0	0	0	0	0	0	0	;
    173	0	0	0	0	1	100	1	200	0	0	0	0	0	0	0	0	0	0	0	0	;
    173	0	0	0	0	1	100	1	103	0	0	0	0	0	0	0	0	0	0	0	0	;
    173	0	0	0	0	1	100	1	98	0	0	0	0	0	0	0	0	0	0	0	0	;
    174	0	0	0	0	1	100	1	270	0	0	0	0	0	0	0	0	0	0	0	0	;
    174	0	0	0	0	1	100	1	206	0	0	0	0	0	0	0	0	0	0	0	0	;
    174	0	0	0	0	1	100	1	200	0	0	0	0	0	0	0	0	0	0	0	0	;
    174	0	0	0	0	1	100	1	200	0	0	0	0	0	0	0	0	0	0	0	0	;
    174	0	0	0	0	1	100	1	180	0	0	0	0	0	0	0	0	0	0	0	0	;
    174	0	0	0	0	1	100	1	170	0	0	0	0	0	0	0	0	0	0	0	0	;
    174	0	0	0	0	1	100	1	144	0	0	0	0	0	0	0	0	0	0	0	0	;
    174	0	0	0	0	1	100	1	143	0	0	0	0	0	0	0	0	0	0	0	0	;
    174	0	0	0	0	1	100	1	115	0	0	0	0	0	0	0	0	0	0	0	0	;
    174	0	0	0	0	1	100	1	112	0	0	0	0	0	0	0	0	0	0	0	0	;
    174	0	0	0	0	1	100	1	110	0	0	0	0	0	0	0	0	0	0	0	0	;
    179	0	0	0	0	1	100	1	830	0	0	0	0	0	0	0	0	0	0	0	0	;
    179	0	0	0	0	1	100	1	487	0	0	0	0	0	0	0	0	0	0	0	0	;
    179	0	0	0	0	1	100	1	452	0	0	0	0	0	0	0	0	0	0	0	0	;
    179	0	0	0	0	1	100	1	440	0	0	0	0	0	0	0	0	0	0	0	0	;
    179	0	0	0	0	1	100	1	343	0	0	0	0	0	0	0	0	0	0	0	0	;
    179	0	0	0	0	1	100	1	325	0	0	0	0	0	0	0	0	0	0	0	0	;
    179	0	0	0	0	1	100	1	320	0	0	0	0	0	0	0	0	0	0	0	0	;
    179	0	0	0	0	1	100	1	225	0	0	0	0	0	0	0	0	0	0	0	0	;
    179	0	0	0	0	1	100	1	131	0	0	0	0	0	0	0	0	0	0	0	0	;
    180	0	0	0	0	1	100	1	275	0	0	0	0	0	0	0	0	0	0	0	0	;
    180	0	0	0	0	1	100	1	214	0	0	0	0	0	0	0	0	0	0	0	0	;
    180	0	0	0	0	1	100	1	202	0	0	0	0	0	0	0	0	0	0	0	0	;
    180	0	0	0	0	1	100	1	171	0	0	0	0	0	0	0	0	0	0	0	0	;
    180	0	0	0	0	1	100	1	150	0	0	0	0	0	0	0	0	0	0	0	0	;
    180	0	0	0	0	1	100	1	100	0	0	0	0	0	0	0	0	0	0	0	0	;
    187	0	0	0	0	1	100	1	240	0	0	0	0	0	0	0	0	0	0	0	0	;
    187	0	0	0	0	1	100	1	240	0	0	0	0	0	0	0	0	0	0	0	0	;
    187	0	0	0	0	1	100	1	240	0	0	0	0	0	0	0	0	0	0	0	0	;
    187	0	0	0	0	1	100	1	240	0	0	0	0	0	0	0	0	0	0	0	0	;
    187	0	0	0	0	1	100	1	240	0	0	0	0	0	0	0	0	0	0	0	0	;
    187	0	0	0	0	1	100	1	240	0	0	0	0	0	0	0	0	0	0	0	0	;
    188	0	0	0	0	1	100	1	240	0	0	0	0	0	0	0	0	0	0	0	0	;
    188	0	0	0	0	1	100	1	240	0	0	0	0	0	0	0	0	0	0	0	0	;
    188	0	0	0	0	1	100	1	240	0	0	0	0	0	0	0	0	0	0	0	0	;
    188	0	0	0	0	1	100	1	240	0	0	0	0	0	0	0	0	0	0	0	0	;
...
];

%% wind farm and PV park data
% bus	p_max	base_kv
mpc.wind = [
    17	104.90	232	;
    18	209.80	232	;
    20	2.60	132	;
    22	0.50	132	;
    23	5.40	132	;
    23	21.00	132	;
    24	65.60	132	;
    31	19.10	132	;
    32	3.60	132	;
    33	1.00	132	;
    33	5.60	132	;
    36	0.10	132	;
    38	10.00	132	;
    46	11.70	132	;
    48	0.70	132	;
    49	31.30	132	;
    54	8.60	132	;
    57	2.90	132	;
    59	3.00	132	;
    61	0.20	132	;
    63	1.00	132	;
    64	2.00	132	;
    68	1.50	132	;
    72	9.00	132	;
    73	18.80	132	;
    74	7.70	132	;
    77	5.70	132	;
    80	21.60	132	;
    81	40.10	132	;
    82	108.60	132	;
    83	86.80	132	;
    85	4.00	132	;
    86	1.00	132	;
    90	1.10	132	;
    93	9.40	132	;
    94	12.30	132	;
    94	65.60	132	;
    95	0.10	132	;
    96	22.90	132	;
    99	0.50	132	;
    100	0.20	132	;
    102	50.50	132	;
    105	4.10	132	;
    149	521.00	20	;
    159	345.00	20	;
    165	65.00	20	;
    167	170.00	20	;
    181	516.00	20	;
    185	1238.00	20	;
    194	454.00	20	;
    196	227.00	20	;
    205	2016.00	20	;
    214	1468.00	20	;
    220	1000.00	20	;
    225	607.00	20	;  
];

% bus	p_max	base_kv
mpc.solar = [
    20	7.57	132	;
    22	3.30	132	;
    23	0.68	132	;
    27	4.93	132	;
    28	0.05	132	;
    29	1.35	132	;
    31	9.03	132	;
    32	8.46	132	;
    33	4.10	132	;
    36	0.47	132	;
    37	3.21	132	;
    38	3.15	132	;
    40	0.01	132	;
    41	0.60	132	;
    42	4.96	132	;
    43	0.01	132	;
    44	0.05	132	;
    46	4.00	132	;
    47	0.52	132	;
    48	1.47	132	;
    49	6.76	132	;
    50	0.94	132	;
    54	1.74	132	;
    57	4.55	132	;
    58	0.03	132	;
    59	6.32	132	;
    61	1.85	132	;
    63	0.75	132	;
    64	1.46	132	;
    66	2.15	132	;
    68	0.55	132	;
    69	0.02	132	;
    71	0.01	132	;
    72	3.88	132	;
    73	3.20	132	;
    74	3.77	132	;
    75	1.45	132	;
    77	2.29	132	;
    78	0.19	132	;
    80	3.42	132	;
    81	4.27	132	;
    85	2.70	132	;
    86	1.27	132	;
    88	0.60	132	;
    90	1.79	132	;
    92	2.31	132	;
    94	3.35	132	;
    95	5.43	132	;
    96	6.10	132	;
    97	0.02	132	;
    99	3.80	132	;
    100	1.62	132	;
    102	6.20	132	;
    104	4.95	132	;
    105	1.49	132	;
];

%% load data
% bus	p_max	tan_phi	base_kv
mpc.load = [
    20	70.70	0.2810	132	;
    22	87.30	0.3059	132	;
    23	64.50	0.2779	132	;
    27	27.20	0.3498	132	;
    28	15.10	0.3065	132	;
    29	65.50	0.2886	132	;
    31	63.40	0.2981	132	;
    32	61.60	0.1347	132	;
    33	91.10	0.2423	132	;
    36	26.90	0.3484	132	;
    37	86.80	0.3385	132	;
    38	27.80	0.3421	132	;
    40	30.80	0.3281	132	;
    41	11.60	0.3053	132	;
    42	157.80	0.2403	132	;
    43	27.20	0.3498	132	;
    46	37.20	0.2754	132	;
    47	123.30	0.3848	132	;
    48	33.50	0.4436	132	;
    49	73.90	-0.0677	132	;
    50	6.00	0.2857	132	;
    51	23.00	0.3386	132	;
    52	16.90	0.3094	132	;
    54	23.90	0.2704	132	;
    57	49.90	0.4352	132	;
    58	16.20	0.3308	132	;
    59	31.10	0.2784	132	;
    61	32.40	0.2782	132	;
    63	7.80	0.3125	132	;
    64	7.70	0.2857	132	;
    67	65.80	-0.0278	132	;
    68	10.50	0.3256	132	;
    69	1.00	0.3750	132	;
    70	24.60	0.3366	132	;
    71	28.80	0.3559	132	;
    72	42.90	0.3324	132	;
    73	29.60	0.1235	132	;
    74	33.80	0.2708	132	;
    75	8.30	0.3088	132	;
    77	35.00	0.2718	132	;
    78	2.70	0.2727	132	;
    79	11.00	0.2889	132	;
    80	29.60	0.2469	132	;
    81	16.60	0.3456	132	;
    85	34.50	0.1201	132	;
    86	13.40	0.3455	132	;
    87	13.80	0.1416	132	;
    88	105.60	0.3684	132	;
    90	32.30	0.2642	132	;
    91	14.50	0.3025	132	;
    92	107.40	0.2179	132	;
    93	12.10	0.3131	132	;
    94	32.40	0.3534	132	;
    95	77.10	0.1677	132	;
    96	43.50	0.2801	132	;
    97	70.00	0.1254	132	;
    99	69.40	0.2355	132	;
    100	64.60	0.2849	132	;
    102	30.50	-0.0480	132	;
    104	41.10	0.2552	132	;
    105	25.70	0.1991	132	;
    131	340.00	0.1905	420	;
    134	3809.00	0.1607	420	;
    137	1115.00	0.1905	420	;
    140	2351.00	0.2789	420	;
    142	3851.00	0.3000	420	;
    152	2148.00	0.3668	420	;
    156	4184.00	0.3000	420	;
    161	3094.00	0.3287	420	;
    170	3251.00	0.3287	420	;
    179	3019.00	0.3287	420	;
    184	192.00	0.3000	420	;
    190	4034.00	0.2945	420	;
    197	3238.00	0.3000	420	;
    200	5721.00	0.3383	420	;
    203	7650.00	0.3383	420	;
    212	4762.00	0.1679	420	;
    217	10433.00	0.1749	420	;
    222	3840.00	0.3000	420	;
    228	140.00	0.3287	420	;
];

%% branch data
%	fbus	tbus	r	x	b	rateA	rateB	rateC	ratio	angle	status	angmin	angmax
mpc.branch = [
    1	6	0.000000	0.001100	0.000000	610	671	793	1	0	1	-360	360	;
    2	10	0.000000	0.001006	0.000000	831	915	1080	1	0	1	-360	360	;
    3	4	0.000020	0.000080	0.000000	500	550	650	1	0	1	-360	360	;
    3	24	0.000380	0.029000	0.000000	500	550	650	1	0	1	-360	360	;
    4	10	0.000300	0.004260	0.001280	2020	2220	2620	1	0	1	-360	360	;
    4	13	0.000519	0.007410	0.002230	2020	2220	2620	1	0	1	-360	360	;
    4	107	0.000199	0.020922	0.000000	750	825	975	1	0	1	-360	360	;
    5	9	0.000094	0.001090	0.001000	797	876	1040	1	0	1	-360	360	;
    5	12	0.000125	0.001490	0.002110	977	1070	1270	1	0	1	-360	360	;
    5	26	0.000680	0.045200	0.000000	250	275	325	1	0	1	-360	360	;
    5	108	0.000215	0.025896	0.000000	558	613.8	725.4	1	0	1	-360	360	;
    5	126	0.002010	0.018079	0.000000	270	297	351	1	0	1	-360	360	;
    6	11	0.000506	0.007220	0.002170	2020	2220	2620	1	0	1	-360	360	;
    6	12	0.000437	0.006230	0.001870	2020	2220	2620	1	0	1	-360	360	;
    6	13	0.000406	0.005810	0.001740	2020	2220	2620	1	0	1	-360	360	;
    6	14	0.000200	0.028787	0.000000	500	550	650	1	0	1	-360	360	;
    6	30	0.000996	0.075711	0.000000	350	385	455	1	0	1	-360	360	;
    6	30	0.000375	0.029500	0.000000	400	440	520	1	0	1	-360	360	;
    6	114	0.001056	0.061740	0.000000	250	275	325	1	0	1	-360	360	;
    7	11	0.000225	0.002470	0.001460	804	884	1040	1	0	1	-360	360	;
    7	127	0.000027	0.048016	0.000000	350	385	455	1	0	1	-360	360	;
    7	128	0.000053	0.048159	0.000000	350	385	455	1	0	1	-360	360	;
    8	11	0.000281	0.004020	0.001210	2020	2220	2620	1	0	1	-360	360	;
    8	45	0.000375	0.029500	0.000000	400	440	520	1	0	1	-360	360	;
    8	211	0.001798	0.019400	0.030200	831	914.1	1080.3	1	0	1	-360	360	;
    9	47	0.000543	0.038857	0.000000	350	385	455	1	0	1	-360	360	;
    10	11	0.001110	0.013900	0.016200	748	823	973	1	0	1	-360	360	;
    10	129	0.000040	0.000010	0.000000	255	280.5	331.5	1	0	1	-360	360	;
    11	12	0.000237	0.002190	0.011900	824	907	1070	1	0	1	-360	360	;
    11	53	0.001029	0.075366	0.000000	350	385	455	1	0	1	-360	360	;
    11	53	0.000700	0.051600	0.000000	500	550	650	1	0	1	-360	360	;
    11	210	0.000981	0.011600	0.003713	831	914.1	1080.3	1	0	1	-360	360	;
    12	16	0.000200	0.028787	0.000000	500	550	650	1	0	1	-360	360	;
    12	56	0.000620	0.053400	0.000000	500	550	650	1	0	1	-360	360	;
    13	106	0.000375	0.029500	0.000000	400	440	520	1	0	1	-360	360	;
    14	15	0.000000	0.006667	0.000000	450	495	585	1	0	1	-360	360	;
    15	19	0.000242	0.003070	0.003500	442	486	575	1	0	1	-360	360	;
    16	19	0.001000	0.013000	0.014900	442	486	575	1	0	1	-360	360	;
    17	18	0.000892	0.002400	0.003760	426	469	554	1	0	1	-360	360	;
    17	19	0.004290	0.019100	0.014200	426	469	554	1	0	1	-360	360	;
    18	19	0.004380	0.019300	0.014500	426	469	554	1	0	1	-360	360	;
    20	44	0.003160	0.021400	0.000138	201	221	262	1	0	1	-360	360	;
    20	92	0.002870	0.019600	0.000046	281	309	366	1	0	1	-360	360	;
    20	95	0.169000	0.679000	0.000000	3000	3300	3900	1	0	1	-360	360	;
    21	23	0.000057	0.000172	0.000038	151	166	196	1	0	1	-360	360	;
    22	23	0.003500	0.004710	0.001000	105	116	137	1	0	1	-360	360	;
    22	47	0.003100	0.004360	0.000992	98.3	108	128	1	0	1	-360	360	;
    22	58	0.002350	0.003160	0.000613	107	118	140	1	0	1	-360	360	;
    23	29	0.001380	0.010100	0.001320	176	194	229	1	0	1	-360	360	;
    23	42	0.001890	0.018100	0.003870	229	251	297	1	0	1	-360	360	;
    23	47	0.002350	0.004420	0.000966	142	156	184	1	0	1	-360	360	;
    23	58	0.003560	0.004820	0.000945	101	111	131	1	0	1	-360	360	;
    23	88	0.003270	0.010000	0.000941	98.3	108	128	1	0	1	-360	360	;
    23	112	0.000500	0.047603	0.000000	300	330	390	1	0	1	-360	360	;
    23	121	0.001700	0.084139	0.000000	100	110	130	1	0	1	-360	360	;
    24	61	0.001660	0.002580	0.000244	126	138	163	1	0	1	-360	360	;
    24	62	0.002240	0.002810	0.000436	91.5	101	119	1	0	1	-360	360	;
    24	89	0.000402	0.003620	0.000651	256	282	333	1	0	1	-360	360	;
    24	93	0.000172	0.001090	0.000280	201	221	262	1	0	1	-360	360	;
    24	96	0.008950	0.060700	0.000421	201	221	262	1	0	1	-360	360	;
    24	116	0.000882	0.091441	0.000000	159	174.9	206.7	1	0	1	-360	360	;
    25	26	0.001319	0.003390	0.000000	100	110	130	1	0	1	-360	360	;
    25	33	0.001950	0.005220	0.000728	190	209	247	1	0	1	-360	360	;
    25	113	0.000500	0.047603	0.000000	300	330	390	1	0	1	-360	360	;
    27	43	0.000803	0.001780	0.000342	158	174	205	1	0	1	-360	360	;
    27	51	0.002810	0.003330	0.000351	123	136	160	1	0	1	-360	360	;
    28	36	0.000976	0.001380	0.000241	176	194	229	1	0	1	-360	360	;
    28	53	0.002580	0.021200	0.001150	176	194	229	1	0	1	-360	360	;
    29	42	0.002810	0.015600	0.001380	208	229	270	1	0	1	-360	360	;
    29	67	0.001320	0.002120	0.000583	117	128	152	1	0	1	-360	360	;
    29	88	0.002640	0.003620	0.000573	105	116	137	1	0	1	-360	360	;
    30	90	0.000287	0.002010	0.001080	421	463	547	1	0	1	-360	360	;
    31	41	0.004250	0.028800	0.000068	201	221	262	1	0	1	-360	360	;
    31	69	0.006370	0.045600	0.000413	201	221	262	1	0	1	-360	360	;
    31	78	0.008550	0.052100	0.001180	181	199	235	1	0	1	-360	360	;
    31	84	0.005910	0.040100	0.000095	201	221	262	1	0	1	-360	360	;
    32	44	0.000631	0.004250	0.000122	201	221	262	1	0	1	-360	360	;
    32	53	0.006940	0.047400	0.000112	281	309	366	1	0	1	-360	360	;
    32	91	0.004480	0.030200	0.000072	281	309	366	1	0	1	-360	360	;
    32	92	0.347000	0.909000	0.000000	3000	3300	3900	1	0	1	-360	360	;
    32	95	0.164000	0.767000	0.000000	3000	3300	3900	1	0	1	-360	360	;
    32	97	0.002350	0.014800	0.002110	208	229	270	1	0	1	-360	360	;
    32	104	0.120000	0.532000	0.000000	3000	3300	3900	1	0	1	-360	360	;
    33	37	0.001030	0.004420	0.001450	219	241	285	1	0	1	-360	360	;
    33	55	0.000918	0.003900	0.001280	219	241	285	1	0	1	-360	360	;
    33	99	0.013800	0.189000	0.000000	3000	3300	3900	1	0	1	-360	360	;
    34	97	0.000115	0.000230	0.000031	158	174	205	1	0	1	-360	360	;
    35	97	0.000115	0.000230	0.000031	158	174	205	1	0	1	-360	360	;
    36	37	0.002120	0.005340	0.000845	185	204	241	1	0	1	-360	360	;
    36	51	0.001030	0.001720	0.000298	176	194	229	1	0	1	-360	360	;
    37	43	0.002870	0.006540	0.001250	158	174	205	1	0	1	-360	360	;
    37	52	0.000689	0.002300	0.000603	181	199	235	1	0	1	-360	360	;
    37	66	0.002810	0.005280	0.001340	114	126	149	1	0	1	-360	360	;
    37	67	0.015300	0.123000	0.000000	3000	3300	3900	1	0	1	-360	360	;
    38	54	0.003900	0.026300	0.000063	201	221	262	1	0	1	-360	360	;
    38	69	0.006370	0.034200	0.000991	181	199	235	1	0	1	-360	360	;
    38	80	0.004820	0.032000	0.000369	201	221	262	1	0	1	-360	360	;
    39	81	0.001090	0.007120	0.001010	208	229	270	1	0	1	-360	360	;
    39	102	0.004250	0.027100	0.003870	208	229	270	1	0	1	-360	360	;
    40	56	0.000344	0.003500	0.000490	265	292	345	1	0	1	-360	360	;
    40	59	0.004820	0.032900	0.000078	201	221	262	1	0	1	-360	360	;
    40	70	0.000918	0.007860	0.000921	197	216	256	1	0	1	-360	360	;
    40	79	0.006770	0.046000	0.000108	201	221	262	1	0	1	-360	360	;
    41	84	0.002180	0.015000	0.000036	201	221	262	1	0	1	-360	360	;
    41	87	0.000803	0.007120	0.001280	256	282	333	1	0	1	-360	360	;
    42	88	0.006540	0.034500	0.001830	105	116	137	1	0	1	-360	360	;
    42	92	0.002070	0.019800	0.003660	251	277	327	1	0	1	-360	360	;
    42	127	0.000516	0.000010	0.000000	350	385	455	1	0	1	-360	360	;
    42	128	0.000461	0.000010	0.000000	350	385	455	1	0	1	-360	360	;
    44	45	0.001058	0.005875	0.000000	140	154	182	1	0	1	-360	360	;
    44	92	0.006030	0.041000	0.000184	201	221	262	1	0	1	-360	360	;
    46	87	0.000746	0.006370	0.001150	256	282	333	1	0	1	-360	360	;
    46	90	0.005340	0.035800	0.000293	201	221	262	1	0	1	-360	360	;
    47	67	0.002410	0.004250	0.000855	126	138	163	1	0	1	-360	360	;
    47	100	0.001950	0.003040	0.000799	117	128	152	1	0	1	-360	360	;
    48	59	0.001610	0.009070	0.000942	206	226	267	1	0	1	-360	360	;
    48	60	0.000172	0.000402	0.000082	151	166	196	1	0	1	-360	360	;
    48	101	0.000574	0.003330	0.000342	206	226	267	1	0	1	-360	360	;
    49	77	0.009010	0.061500	0.000145	201	221	262	1	0	1	-360	360	;
    49	94	0.008260	0.056100	0.000133	201	221	262	1	0	1	-360	360	;
    50	73	0.001320	0.011500	0.002080	256	282	333	1	0	1	-360	360	;
    50	85	0.003670	0.025000	0.000060	201	221	262	1	0	1	-360	360	;
    51	71	0.001950	0.003270	0.000555	176	194	229	1	0	1	-360	360	;
    52	99	0.000861	0.005570	0.000794	181	199	235	1	0	1	-360	360	;
    53	65	0.008150	0.055300	0.000131	201	221	262	1	0	1	-360	360	;
    53	68	0.002300	0.032400	0.000133	455	500	591	1	0	1	-360	360	;
    53	71	0.001950	0.016400	0.000120	176	194	229	1	0	1	-360	360	;
    53	99	0.001610	0.021000	0.000056	455	500	591	1	0	1	-360	360	;
    54	80	0.169000	0.780000	0.000000	3000	3300	3900	1	0	1	-360	360	;
    55	99	0.000517	0.002240	0.000726	219	241	285	1	0	1	-360	360	;
    56	101	0.002300	0.014600	0.002080	208	229	270	1	0	1	-360	360	;
    57	63	0.000574	0.003900	0.000436	238	262	309	1	0	1	-360	360	;
    57	90	0.001550	0.014200	0.000100	284	312	369	1	0	1	-360	360	;
    59	64	0.004250	0.028900	0.000068	201	221	262	1	0	1	-360	360	;
    59	90	0.004820	0.032600	0.000077	201	221	262	1	0	1	-360	360	;
    59	101	0.002410	0.016300	0.000038	201	221	262	1	0	1	-360	360	;
    61	62	0.024000	0.499000	0.000000	3000	3300	3900	1	0	1	-360	360	;
    61	74	0.002300	0.420000	0.000000	3000	3300	3900	1	0	1	-360	360	;
    62	74	0.000344	0.524000	0.000000	3000	3300	3900	1	0	1	-360	360	;
    63	70	0.001550	0.007520	0.001430	197	216	256	1	0	1	-360	360	;
    64	93	0.017600	0.119000	0.000281	201	221	262	1	0	1	-360	360	;
    64	96	0.009010	0.061200	0.000144	201	221	262	1	0	1	-360	360	;
    64	99	0.011300	0.076700	0.000181	201	221	262	1	0	1	-360	360	;
    65	68	0.000918	0.012900	0.000042	455	500	591	1	0	1	-360	360	;
    65	104	0.005620	0.038500	0.000091	201	221	262	1	0	1	-360	360	;
    65	109	0.000684	0.047403	0.000000	307	337.7	399.1	1	0	1	-360	360	;
    65	110	0.000606	0.044446	0.000000	330	363	429	1	0	1	-360	360	;
    65	130	0.000220	0.014178	0.000000	158	173.8	205.4	1	0	1	-360	360	;
    66	67	0.001600	0.031280	0.000000	125	137.5	162.5	1	0	1	-360	360	;
    67	100	0.001490	0.002410	0.000642	117	128	152	1	0	1	-360	360	;
    68	86	0.004760	0.006030	0.000767	123	136	160	1	0	1	-360	360	;
    72	96	0.025000	0.608000	0.000000	3000	3300	3900	1	0	1	-360	360	;
    73	84	0.001260	0.008550	0.000020	293	322	380	1	0	1	-360	360	;
    73	94	0.010000	0.068100	0.000162	201	221	262	1	0	1	-360	360	;
    73	105	0.024800	0.333000	0.000000	3000	3300	3900	1	0	1	-360	360	;
    74	89	0.001320	0.002350	0.000333	126	138	163	1	0	1	-360	360	;
    75	101	0.000402	0.000689	0.000058	128	141	166	1	0	1	-360	360	;
    76	101	0.000402	0.000689	0.000072	114	126	149	1	0	1	-360	360	;
    77	79	0.007350	0.050500	0.000118	201	221	262	1	0	1	-360	360	;
    77	106	0.000976	0.008210	0.001490	256	282	333	1	0	1	-360	360	;
    78	80	0.007460	0.046500	0.000256	201	221	262	1	0	1	-360	360	;
    78	105	0.010600	0.061000	0.002040	181	199	235	1	0	1	-360	360	;
    80	81	0.011100	0.018400	0.002390	126	138	163	1	0	1	-360	360	;
    80	82	0.006490	0.031000	0.005430	215	236	279	1	0	1	-360	360	;
    80	83	0.005970	0.018400	-0.000437	181	199	235	1	0	1	-360	360	;
    80	102	0.246000	0.919000	0.000000	3000	3300	3900	1	0	1	-360	360	;
    80	125	0.011598	0.116584	0.000000	80.2	88.22	104.26	1	0	1	-360	360	;
    81	102	0.168000	0.559000	0.000000	3000	3300	3900	1	0	1	-360	360	;
    84	90	0.011100	0.075300	0.000178	201	221	262	1	0	1	-360	360	;
    85	90	0.177000	0.946000	0.000000	3000	3300	3900	1	0	1	-360	360	;
    85	106	0.000976	0.008210	0.001490	256	282	333	1	0	1	-360	360	;
    91	104	0.003620	0.024400	0.000058	201	221	262	1	0	1	-360	360	;
    92	95	0.075500	0.362000	0.000000	3000	3300	3900	1	0	1	-360	360	;
    94	102	0.007980	0.015300	0.006410	272	299	354	1	0	1	-360	360	;
    94	111	0.000742	0.048573	0.000000	310	341	403	1	0	1	-360	360	;
    95	97	0.185000	0.829000	0.000000	3000	3300	3900	1	0	1	-360	360	;
    95	208	0.007240	0.096400	0.003200	203	223.3	263.9	1	0	1	-360	360	;
    95	209	0.006660	0.007580	0.002500	203	223.3	263.9	1	0	1	-360	360	;
    97	98	0.000000	0.000100	0.000003	199	219	259	1	0	1	-360	360	;
    98	103	0.000172	0.002640	0.000178	126	138	163	1	0	1	-360	360	;
    99	101	0.004820	0.032800	0.000077	201	221	262	1	0	1	-360	360	;
    115	129	0.000840	0.050256	0.000000	255	280.5	331.5	1	0	1	-360	360	;
    117	126	0.000000	0.123772	0.000000	270	297	351	1	0	1	-360	360	;
    118	126	0.000048	0.142894	0.000000	270	297	351	1	0	1	-360	360	;
    119	130	0.002884	0.099746	0.000000	158	173.8	205.4	1	0	1	-360	360	;
    120	130	0.002804	0.111646	0.000000	158	173.8	205.4	1	0	1	-360	360	;
    122	127	0.009688	0.165984	0.000000	350	385	455	1	0	1	-360	360	;
    123	128	0.009661	0.165841	0.000000	350	385	455	1	0	1	-360	360	;
    124	129	0.010356	0.299548	0.000000	255	280.5	331.5	1	0	1	-360	360	;
    131	133	0.001000	0.015000	0.055000	2000	2200	2500	1	0	1	-360	360	;
    131	134	0.000040	0.001500	0.000000	2000	3000	4000	1.0126	0	1	-360	360	;
    131	138	0.001750	0.027000	0.008000	1500	1800	2000	1	0	1	-360	360	;
    132	133	0.001000	0.014000	0.004000	1350	1600	1800	1	0	1	-360	360	;
    132	169	0.023400	0.007000	0.003000	2000	2200	2600	1	0	1	-360	360	;
    132	177	0.032000	0.025000	0.007000	1500	1650	1950	1	0	1	-360	360	;
    132	177	0.001300	0.020000	0.006000	1500	1650	1950	1	0	1	-360	360	;
    133	140	0.000080	0.003050	0.000000	2000	3000	4000	1.01275	0	1	-360	360	;
    133	169	0.038000	0.010000	0.009000	1700	1870	2210	1	0	1	-360	360	;
    133	207	0.001600	0.026000	0.009000	1900	2090	2470	1	0	1	-360	360	;
    133	207	0.002000	0.022000	0.006000	1600	1760	2080	1	0	1	-360	360	;
...
];

% fbus	tbus	rating	A	B	C	status
mpc.branchHVDC = [
    202	217	1300	0.000012137080452	0	4.649043683589120	1	;
];

%%-----  OPF Data  -----%%
%% generator cost data
%	1	startup	shutdown	n	x1	y1	...	xn	yn
%	2	startup	shutdown	n	c(n-1)	...	c0

mpc.gencost = [
2	0	0	2	62.478	0	;
2	0	0	2	65.188	0	;
2	0	0	2	136.623	0	;
2	0	0	2	55.582	0	;
2	0	0	2	56.562	0	;
2	0	0	2	59.307	0	;
2	0	0	2	59.792	0	;
2	0	0	2	59.644	0	;
2	0	0	2	118.634	0	;
2	0	0	2	58.385	0	;
2	0	0	2	61.592	0	;
2	0	0	2	58.333	0	;
2	0	0	2	55.094	0	;
2	0	0	2	59.762	0	;
2	0	0	2	63.430	0	;
2	0	0	2	153.116	0	;
2	0	0	2	55.051	0	;
2	0	0	2	61.147	0	;
2	0	0	2	60.360	0	;
2	0	0	2	62.950	0	;
2	0	0	2	58.126	0	;
2	0	0	2	144.266	0	;
2	0	0	2	109.498	0	;
2	0	0	2	55.466	0	;
2	0	0	2	55.341	0	;
2	0	0	2	57.680	0	;
2	0	0	2	57.584	0	;
2	0	0	2	31.001	0	;
2	0	0	2	30.764	0	;
2	0	0	2	30.606	0	;
2	0	0	2	36.178	0	;
2	0	0	2	30.422	0	;
2	0	0	2	30.727	0	;
2	0	0	2	30.626	0	;
2	0	0	2	32.011	0	;
2	0	0	2	30.888	0	;
2	0	0	2	31.974	0	;
2	0	0	2	30.612	0	;
2	0	0	2	32.233	0	;
2	0	0	2	30.597	0	;
2	0	0	2	32.564	0	;
2	0	0	2	23.481	0	;
2	0	0	2	59.152	0	;
2	0	0	2	62.264	0	;
2	0	0	2	0.000	0	;
2	0	0	2	0.000	0	;
2	0	0	2	59.280	0	;
2	0	0	2	31.342	0	;
2	0	0	2	31.844	0	;
2	0	0	2	28.956	0	;
2	0	0	2	30.448	0	;
2	0	0	2	25.473	0	;
2	0	0	2	34.272	0	;
2	0	0	2	33.556	0	;
2	0	0	2	38.705	0	;
2	0	0	2	28.014	0	;
2	0	0	2	35.497	0	;
2	0	0	2	21.240	0	;
2	0	0	2	31.731	0	;
2	0	0	2	20.355	0	;
2	0	0	2	22.968	0	;
2	0	0	2	22.661	0	;
2	0	0	2	22.658	0	;
2	0	0	2	21.144	0	;
2	0	0	2	21.693	0	;
2	0	0	2	23.961	0	;
2	0	0	2	22.217	0	;
2	0	0	2	21.788	0	;
2	0	0	2	79.468	0	;
2	0	0	2	20.827	0	;
2	0	0	2	21.990	0	;
2	0	0	2	20.278	0	;
2	0	0	2	21.525	0	;
2	0	0	2	22.038	0	;
2	0	0	2	22.230	0	;
2	0	0	2	22.530	0	;
2	0	0	2	21.694	0	;
2	0	0	2	21.952	0	;
2	0	0	2	36.027	0	;
2	0	0	2	33.547	0	;
2	0	0	2	38.919	0	;
2	0	0	2	53.094	0	;
2	0	0	2	29.447	0	;
2	0	0	2	52.007	0	;
2	0	0	2	21.026	0	;
2	0	0	2	23.709	0	;
2	0	0	2	21.064	0	;
2	0	0	2	20.074	0	;
2	0	0	2	20.623	0	;
2	0	0	2	20.294	0	;
2	0	0	2	21.875	0	;
2	0	0	2	21.805	0	;
2	0	0	2	23.973	0	;
2	0	0	2	33.302	0	;
2	0	0	2	26.092	0	;
2	0	0	2	26.750	0	;
2	0	0	2	26.354	0	;
2	0	0	2	28.253	0	;
2	0	0	2	30.505	0	;
2	0	0	2	28.684	0	;
2	0	0	2	29.233	0	;
2	0	0	2	29.538	0	;
2	0	0	2	31.642	0	;
2	0	0	2	31.629	0	;
2	0	0	2	28.976	0	;
2	0	0	2	31.834	0	;
2	0	0	2	20.175	0	;
2	0	0	2	21.126	0	;
2	0	0	2	20.429	0	;
2	0	0	2	21.544	0	;
2	0	0	2	18.751	0	;
2	0	0	2	21.657	0	;
2	0	0	2	19.188	0	;
2	0	0	2	19.856	0	;
2	0	0	2	66.558	0	;
2	0	0	2	69.800	0	;
2	0	0	2	22.028	0	;
2	0	0	2	34.397	0	;
2	0	0	2	35.841	0	;
2	0	0	2	20.484	0	;
2	0	0	2	20.344	0	;
2	0	0	2	21.161	0	;
2	0	0	2	22.114	0	;
2	0	0	2	19.164	0	;
2	0	0	2	21.233	0	;
2	0	0	2	28.382	0	;
2	0	0	2	31.634	0	;
2	0	0	2	30.536	0	;
2	0	0	2	55.105	0	;
2	0	0	2	70.393	0	;
2	0	0	2	24.573	0	;
2	0	0	2	21.284	0	;
2	0	0	2	22.530	0	;
2	0	0	2	23.588	0	;
2	0	0	2	20.423	0	;
2	0	0	2	22.614	0	;
2	0	0	2	21.320	0	;
2	0	0	2	20.141	0	;
2	0	0	2	21.345	0	;
2	0	0	2	22.137	0	;
2	0	0	2	20.310	0	;
2	0	0	2	22.185	0	;
2	0	0	2	22.022	0	;
2	0	0	2	21.505	0	;
2	0	0	2	23.083	0	;
2	0	0	2	21.436	0	;
2	0	0	2	20.719	0	;
2	0	0	2	23.272	0	;
2	0	0	2	21.620	0	;
2	0	0	2	21.731	0	;
2	0	0	2	39.452	0	;
2	0	0	2	30.479	0	;
2	0	0	2	30.174	0	;
2	0	0	2	28.902	0	;
2	0	0	2	37.797	0	;
2	0	0	2	68.435	0	;
2	0	0	2	34.339	0	;
2	0	0	2	36.717	0	;
2	0	0	2	34.695	0	;
2	0	0	2	35.177	0	;
2	0	0	2	23.274	0	;
2	0	0	2	23.316	0	;
2	0	0	2	21.268	0	;
2	0	0	2	21.767	0	;
2	0	0	2	22.562	0	;
2	0	0	2	23.732	0	;
2	0	0	2	20.102	0	;
2	0	0	2	22.137	0	;
2	0	0	2	20.256	0	;
2	0	0	2	23.732	0	;
2	0	0	2	21.169	0	;
2	0	0	2	20.163	0	;
2	0	0	2	22.316	0	;
2	0	0	2	22.150	0	;
2	0	0	2	20.923	0	;
2	0	0	2	32.604	0	;
2	0	0	2	33.855	0	;
2	0	0	2	33.568	0	;
2	0	0	2	37.394	0	;
2	0	0	2	37.167	0	;
2	0	0	2	32.913	0	;
2	0	0	2	34.457	0	;
2	0	0	2	36.915	0	;
2	0	0	2	35.831	0	;
2	0	0	2	21.204	0	;
2	0	0	2	22.115	0	;
2	0	0	2	20.447	0	;
2	0	0	2	20.703	0	;
2	0	0	2	23.912	0	;
2	0	0	2	22.744	0	;
2	0	0	2	23.245	0	;
2	0	0	2	30.657	0	;
2	0	0	2	28.270	0	;
2	0	0	2	33.212	0	;
2	0	0	2	21.541	0	;
2	0	0	2	31.102	0	;
2	0	0	2	23.108	0	;
2	0	0	2	27.907	0	;
2	0	0	2	37.602	0	;
2	0	0	2	29.176	0	;
...
];


